@<TRIPOS>MOLECULE
generated by VMD
   61   63    1    0    0
SMALL
USER_CHARGES
****
Energy = 0

@<TRIPOS>ATOM
      1  PB        46.1730   49.3040   38.8690   p5  416  LIG        1.044300
      2  O2B       46.5850   48.5180   40.2150   oh  416  LIG        -0.628400
      3  O3B       44.7110   49.3530   38.6330    o  416  LIG        -0.647300
      4  PA        47.0860   51.8550   38.2850   p5  416  LIG        1.358500
      5  O1A       48.5380   52.1640   37.9580    o  416  LIG        -0.710300
      6  O2A       46.1880   51.5550   37.0500   oh  416  LIG        -0.621400
      7  O3A       46.8780   50.6550   39.2630   os  416  LIG        -0.514800
      8  O5'       46.2180   53.1120   38.9080   os  416  LIG        -0.475200
      9  C5'       46.7910   54.3850   39.3030   c3  416  LIG        0.305400
     10  C4'       47.2680   55.1620   38.0570   c3  416  LIG        0.127100
     11  O4'       46.2300   55.2200   37.0340   os  416  LIG        -0.353600
     12  C3'       47.4450   56.6180   38.3370   c3  416  LIG        0.183100
     13  O3'       48.4720   57.0200   39.1770   oh  416  LIG        -0.573800
     14  C2'       47.4230   57.2330   36.8740   c3  416  LIG        0.117100
     15  O2'       48.6130   56.9210   36.0980   oh  416  LIG        -0.577800
     16  C1'       46.2590   56.4050   36.2410   c3  416  LIG        0.108800
     17  N9        44.8950   57.1050   36.2080   na  416  LIG        0.276000
     18  C8        44.0580   57.3690   37.3290   cc  416  LIG        0.188700
     19  N7        43.0260   58.2070   37.0300   nd  416  LIG        -0.489100
     20  C5        43.3060   58.4550   35.7390   ca  416  LIG        -0.240200
     21  C6        42.6330   59.3200   34.9060   ca  416  LIG        0.594200
     22  N6        41.5940   60.0430   35.4340   nv  416  LIG        -0.447500
     23  N1        42.9630   59.6200   33.6570   nb  416  LIG        -0.774000
     24  C2        44.0360   58.9500   33.2600   ca  416  LIG        0.714900
     25  N3        44.7960   58.0100   33.9070   nb  416  LIG        -0.712000
     26  C4        44.4040   57.8280   35.2190   ca  416  LIG        0.239800
     27  C11       47.3010   48.5660   37.5430   c3  416  LIG        0.331400
     28  F11       48.6550   48.8810   37.6950    f  416  LIG        -0.186300
     29  F12       46.9770   48.9870   36.2820    f  416  LIG        -0.186300
     30  C12       47.0320   47.0270   37.4820   c3  416  LIG        -0.091400
     31  C13       47.8480   46.3660   36.2700   c3  416  LIG        -0.030400
     32  C14       47.4630   44.8530   36.0790   c3  416  LIG        -0.060400
     33  C15       48.7400   44.0060   36.0070   c3  416  LIG        0.257400
     34  F51       49.4580   44.0860   37.2200    f  416  LIG        -0.198300
     35  F52       48.3230   42.7070   36.0180    f  416  LIG        -0.198300
     36  PN        49.8870   44.2660   34.5350   p5  416  LIG        0.980300
     37  ON1       50.7750   45.5050   34.5210    o  416  LIG        -0.562300
     38  ON2       50.7750   42.9150   34.3340   oh  416  LIG        -0.599900
     39  ON3       48.9530   44.1510   33.2800   oh  416  LIG        -0.599900
     40  H1        47.5360   48.6740   40.3450   ho  416  LIG        0.446000
     41  H2        45.9060   54.8880   39.7120   h1  416  LIG        0.011700
     42  H3        47.4620   54.1700   40.1440   h1  416  LIG        0.011700
     43  H4        48.1510   54.6660   37.6350   h1  416  LIG        0.053700
     44  H5        46.5220   56.8640   38.8770   h1  416  LIG        0.006700
     45  H6        49.1250   56.3010   39.1150   ho  416  LIG        0.411000
     46  H7        47.2080   58.3080   36.8590   h1  416  LIG        0.019700
     47  H8        49.4590   57.0970   36.5440   ho  416  LIG        0.407000
     48  H9        46.5890   56.1140   35.2370   h2  416  LIG        0.074700
     49  H10       44.2840   56.9430   38.2970   h5  416  LIG        0.037800
     50  H11       41.4110   59.9660   36.4270   hn  416  LIG        0.275300
     51  H12       44.4270   59.2980   32.3060   h5  416  LIG        0.000100
     52  H13       45.9410   46.9480   37.3920   hc  416  LIG        0.053200
     53  H14       47.2980   46.5600   38.4380   hc  416  LIG        0.053200
     54  H15       47.5430   46.8030   35.3110   hc  416  LIG        0.047200
     55  H16       48.9280   46.5020   36.4050   hc  416  LIG        0.047200
     56  H17       46.8090   44.6350   35.2260   hc  416  LIG        0.040200
     57  H18       46.8990   44.5890   36.9830   hc  416  LIG        0.040200
     58  H19       41.0740   60.7430   34.9200   hn  416  LIG        0.275300
     59  H20       46.5740   52.1620   36.3940   ho  416  LIG        0.480000
     60  H21       51.3720   42.9330   35.1020   ho  416  LIG        0.431000
     61  H22       48.5600   43.2750   33.4380   ho  416  LIG        0.431000
@<TRIPOS>BOND
    1     1     2  1
    2     1     3  1
    3     1     7  1
    4     1    27  1
    5     2    40  1
    6     4     5  1
    7     4     6  1
    8     4     7  1
    9     4     8  1
   10     6    59  1
   11     8     9  1
   12     9    41  1
   13     9    42  1
   14     9    10  1
   15    10    43  1
   16    10    11  1
   17    10    12  1
   18    11    16  1
   19    12    44  1
   20    12    13  1
   21    12    14  1
   22    13    45  1
   23    14    46  1
   24    14    15  1
   25    14    16  1
   26    15    47  1
   27    16    48  1
   28    16    17  1
   29    17    18  1
   30    17    26  1
   31    18    49  1
   32    18    19  1
   33    19    20  1
   34    20    21  1
   35    20    26  1
   36    21    22  1
   37    21    23  1
   38    22    50  1
   39    22    58  1
   40    23    24  1
   41    24    51  1
   42    24    25  1
   43    25    26  1
   44    27    28  1
   45    27    29  1
   46    27    30  1
   47    30    52  1
   48    30    53  1
   49    30    31  1
   50    31    54  1
   51    31    55  1
   52    31    32  1
   53    32    56  1
   54    32    57  1
   55    32    33  1
   56    33    34  1
   57    33    35  1
   58    33    36  1
   59    36    37  1
   60    36    38  1
   61    36    39  1
   62    38    60  1
   63    39    61  1

@<TRIPOS>SUBSTRUCTURE
1 ****        1 TEMP                        0 ****  **** 0 ROOT
