@<TRIPOS>MOLECULE
generated by VMD
   61   63    1    0    0
SMALL
USER_CHARGES
****
Energy = 0

@<TRIPOS>ATOM
      1  PB        46.1330   50.8350   38.4190   p5  416  LIG        1.044300
      2  O2B       45.9140   50.3200   39.8820   oh  416  LIG        -0.628400
      3  O3B       44.8970   50.7370   37.5330    o  416  LIG        -0.647300
      4  PA        47.2170   53.3010   37.8720   p5  416  LIG        1.358500
      5  O1A       48.6440   53.6740   37.9240    o  416  LIG        -0.710300
      6  O2A       46.7470   52.8500   36.4910   oh  416  LIG        -0.621400
      7  O3A       46.6530   52.2930   38.8290   os  416  LIG        -0.514800
      8  O5'       46.1730   54.5100   38.2290   os  416  LIG        -0.475200
      9  C5'       46.7610   55.7350   38.6560   c3  416  LIG        0.305400
     10  C4'       47.4420   56.4680   37.5140   c3  416  LIG        0.127100
     11  O4'       46.7920   56.2840   36.2300   os  416  LIG        -0.353600
     12  C3'       47.3770   58.0840   37.7140   c3  416  LIG        0.183100
     13  O3'       48.4160   58.6700   38.5650   oh  416  LIG        -0.573800
     14  C2'       47.4730   58.5930   36.2530   c3  416  LIG        0.117100
     15  O2'       48.7980   58.5450   35.8140   oh  416  LIG        -0.577800
     16  C1'       46.5320   57.5260   35.5170   c3  416  LIG        0.108800
     17  N9        45.0350   57.9130   35.6160   na  416  LIG        0.276000
     18  C8        44.2000   57.9420   36.7530   cc  416  LIG        0.188700
     19  N7        43.1960   58.8530   36.6240   nd  416  LIG        -0.489100
     20  C5        43.4130   59.3380   35.3550   ca  416  LIG        -0.240200
     21  C6        42.6830   60.2570   34.6130   ca  416  LIG        0.594200
     22  N6        41.6820   60.9450   35.1670   nv  416  LIG        -0.447500
     23  N1        43.0020   60.6270   33.3960   nb  416  LIG        -0.774000
     24  C2        44.0510   60.0000   32.8800   ca  416  LIG        0.714900
     25  N3        44.8200   59.0780   33.4530   nb  416  LIG        -0.712000
     26  C4        44.4630   58.7680   34.7430   ca  416  LIG        0.239800
     27  C11       47.5940   49.8700   37.7240   c3  416  LIG        0.331400
     28  F11       48.6890   50.6050   37.7550    f  416  LIG        -0.186300
     29  F12       47.3090   49.5480   36.4520    f  416  LIG        -0.186300
     30  C12       47.8620   48.5850   38.5200   c3  416  LIG        -0.091400
     31  C13       48.9240   47.6670   37.8520   c3  416  LIG        -0.030400
     32  C14       49.1870   46.3800   38.7750   c3  416  LIG        -0.060400
     33  C15       50.3210   45.4070   38.3120   c3  416  LIG        0.257400
     34  F51       51.4800   46.0610   38.3340    f  416  LIG        -0.198300
     35  F52       50.4940   44.3810   39.1910    f  416  LIG        -0.198300
     36  PN        50.0340   44.7800   36.5080   p5  416  LIG        0.980300
     37  ON1       50.4260   45.8190   35.4690    o  416  LIG        -0.562300
     38  ON2       50.6700   43.3460   36.3800   oh  416  LIG        -0.599900
     39  ON3       48.5190   44.3940   36.4550   oh  416  LIG        -0.599900
     40  H1        46.7060   50.5860   40.3800   ho  416  LIG        0.446000
     41  H2        45.9610   56.3560   39.0760   h1  416  LIG        0.011700
     42  H3        47.6090   55.5550   39.3280   h1  416  LIG        0.011700
     43  H4        48.4990   56.1770   37.5030   h1  416  LIG        0.053700
     44  H5        46.4290   58.3340   38.2050   h1  416  LIG        0.006700
     45  H6        49.2650   58.3870   38.1820   ho  416  LIG        0.411000
     46  H7        47.0750   59.5960   36.0590   h1  416  LIG        0.019700
     47  H8        48.7530   58.5720   34.8420   ho  416  LIG        0.407000
     48  H9        46.7760   57.4350   34.4520   h2  416  LIG        0.074700
     49  H10       44.4650   57.4290   37.6680   h5  416  LIG        0.037800
     50  H11       41.3820   60.4830   36.0150   hn  416  LIG        0.275300
     51  H12       44.3060   60.2840   31.8620   h5  416  LIG        0.000100
     52  H13       46.9240   48.0170   38.4760   hc  416  LIG        0.053200
     53  H14       48.0270   48.7380   39.5930   hc  416  LIG        0.053200
     54  H15       48.3350   47.3490   36.9830   hc  416  LIG        0.047200
     55  H16       49.8440   48.1880   37.5580   hc  416  LIG        0.047200
     56  H17       48.3080   45.7240   38.7800   hc  416  LIG        0.040200
     57  H18       49.3370   46.6480   39.8280   hc  416  LIG        0.040200
     58  H19       41.0380   61.5660   34.6950   hn  416  LIG        0.275300
     59  H20       47.2240   53.4890   35.9340   ho  416  LIG        0.480000
     60  H21       51.5390   43.4180   36.8110   ho  416  LIG        0.431000
     61  H22       48.3500   43.8870   35.6420   ho  416  LIG        0.431000
@<TRIPOS>BOND
    1     1     2  1
    2     1     3  1
    3     1     7  1
    4     1    27  1
    5     2    40  1
    6     4     5  1
    7     4     6  1
    8     4     7  1
    9     4     8  1
   10     6    59  1
   11     8     9  1
   12     9    41  1
   13     9    42  1
   14     9    10  1
   15    10    43  1
   16    10    11  1
   17    10    12  1
   18    11    16  1
   19    12    44  1
   20    12    13  1
   21    12    14  1
   22    13    45  1
   23    14    46  1
   24    14    15  1
   25    14    16  1
   26    15    47  1
   27    16    48  1
   28    16    17  1
   29    17    18  1
   30    17    26  1
   31    18    49  1
   32    18    19  1
   33    19    20  1
   34    20    21  1
   35    20    26  1
   36    21    22  1
   37    21    23  1
   38    22    50  1
   39    22    58  1
   40    23    24  1
   41    24    51  1
   42    24    25  1
   43    25    26  1
   44    27    28  1
   45    27    29  1
   46    27    30  1
   47    30    52  1
   48    30    53  1
   49    30    31  1
   50    31    54  1
   51    31    55  1
   52    31    32  1
   53    32    56  1
   54    32    57  1
   55    32    33  1
   56    33    34  1
   57    33    35  1
   58    33    36  1
   59    36    37  1
   60    36    38  1
   61    36    39  1
   62    38    60  1
   63    39    61  1

@<TRIPOS>SUBSTRUCTURE
1 ****        1 TEMP                        0 ****  **** 0 ROOT
