@<TRIPOS>MOLECULE
generated by VMD
   61   63    1    0    0
SMALL
USER_CHARGES
****
Energy = 0

@<TRIPOS>ATOM
      1  PB        50.7320   50.1920   35.6190   p5  416  LIG        1.044300
      2  O2B       50.6390   50.3470   37.2290   oh  416  LIG        -0.628400
      3  O3B       49.3770   49.8360   35.1380    o  416  LIG        -0.647300
      4  PA        51.5940   51.8510   33.5200   p5  416  LIG        1.358500
      5  O1A       53.0020   51.7260   33.0400    o  416  LIG        -0.710300
      6  O2A       50.5770   50.9740   32.6870   oh  416  LIG        -0.621400
      7  O3A       51.3440   51.5920   35.0960   os  416  LIG        -0.514800
      8  O5'       51.0070   53.3000   33.2660   os  416  LIG        -0.475200
      9  C5'       51.7850   54.4710   33.4780   c3  416  LIG        0.305400
     10  C4'       52.4160   55.0370   32.1380   c3  416  LIG        0.127100
     11  O4'       51.4390   55.2920   31.1270   os  416  LIG        -0.353600
     12  C3'       52.9680   56.4650   32.4030   c3  416  LIG        0.183100
     13  O3'       54.1150   56.5070   33.2230   oh  416  LIG        -0.573800
     14  C2'       53.1940   57.0150   30.9020   c3  416  LIG        0.117100
     15  O2'       54.3550   56.4950   30.3840   oh  416  LIG        -0.577800
     16  C1'       51.9530   56.3530   30.2170   c3  416  LIG        0.108800
     17  N9        50.9210   57.2890   29.7960   na  416  LIG        0.276000
     18  C8        49.7020   57.5680   30.5000   cc  416  LIG        0.188700
     19  N7        48.9550   58.4540   29.8160   nd  416  LIG        -0.489100
     20  C5        49.7280   58.8220   28.8180   ca  416  LIG        -0.240200
     21  C6        49.4730   59.8590   27.9130   ca  416  LIG        0.594200
     22  N6        48.4270   60.7080   28.0560   nv  416  LIG        -0.447500
     23  N1        50.3700   60.1700   26.9790   nb  416  LIG        -0.774000
     24  C2        51.4170   59.3480   26.9070   ca  416  LIG        0.714900
     25  N3        51.7440   58.3840   27.7680   nb  416  LIG        -0.712000
     26  C4        50.8490   58.1230   28.7420   ca  416  LIG        0.239800
     27  C11       52.1660   49.0130   35.2130   c3  416  LIG        0.331400
     28  F11       53.2500   49.5070   35.9040    f  416  LIG        -0.186300
     29  F12       52.5440   49.0170   33.8920    f  416  LIG        -0.186300
     30  C12       51.8430   47.5950   35.7460   c3  416  LIG        -0.091400
     31  C13       52.9490   46.5520   35.6060   c3  416  LIG        -0.030400
     32  C14       52.4160   45.0770   35.4490   c3  416  LIG        -0.060400
     33  C15       53.3610   43.9960   34.8660   c3  416  LIG        0.257400
     34  F51       52.6070   42.8780   34.6560    f  416  LIG        -0.198300
     35  F52       53.8000   44.5160   33.7080    f  416  LIG        -0.198300
     36  PN        54.7380   43.5650   36.0980   p5  416  LIG        0.980300
     37  ON1       55.3150   42.1830   35.9370    o  416  LIG        -0.562300
     38  ON2       55.8210   44.6500   35.8860   oh  416  LIG        -0.599900
     39  ON3       54.2830   43.8650   37.5620   oh  416  LIG        -0.599900
     40  H1        49.9730   49.7030   37.5260   ho  416  LIG        0.446000
     41  H2        51.1750   55.2750   33.9080   h1  416  LIG        0.011700
     42  H3        52.6260   54.3200   34.1660   h1  416  LIG        0.011700
     43  H4        53.2020   54.3290   31.8470   h1  416  LIG        0.053700
     44  H5        52.1790   57.0030   32.9420   h1  416  LIG        0.006700
     45  H6        54.4730   57.4010   33.0820   ho  416  LIG        0.411000
     46  H7        53.2400   58.1100   30.9500   h1  416  LIG        0.019700
     47  H8        55.0760   56.8710   30.9190   ho  416  LIG        0.407000
     48  H9        52.3350   55.8740   29.3090   h2  416  LIG        0.074700
     49  H10       49.4040   57.0270   31.3880   h5  416  LIG        0.037800
     50  H11       47.8260   60.6280   28.8670   hn  416  LIG        0.275300
     51  H12       52.1850   59.6610   26.2030   h5  416  LIG        0.000100
     52  H13       50.9780   47.2710   35.1560   hc  416  LIG        0.053200
     53  H14       51.5280   47.6070   36.7970   hc  416  LIG        0.053200
     54  H15       53.6260   46.8570   34.7990   hc  416  LIG        0.047200
     55  H16       53.6910   46.5780   36.4130   hc  416  LIG        0.047200
     56  H17       51.6480   45.1930   34.6740   hc  416  LIG        0.040200
     57  H18       51.9630   44.7100   36.3780   hc  416  LIG        0.040200
     58  H19       48.3180   61.4800   27.4110   hn  416  LIG        0.275300
     59  H20       50.8560   51.2940   31.8110   ho  416  LIG        0.480000
     60  H21       56.1420   44.4320   34.9940   ho  416  LIG        0.431000
     61  H22       55.0100   43.6100   38.1570   ho  416  LIG        0.431000
@<TRIPOS>BOND
    1     1     2  1
    2     1     3  1
    3     1     7  1
    4     1    27  1
    5     2    40  1
    6     4     5  1
    7     4     6  1
    8     4     7  1
    9     4     8  1
   10     6    59  1
   11     8     9  1
   12     9    41  1
   13     9    42  1
   14     9    10  1
   15    10    43  1
   16    10    11  1
   17    10    12  1
   18    11    16  1
   19    12    44  1
   20    12    13  1
   21    12    14  1
   22    13    45  1
   23    14    46  1
   24    14    15  1
   25    14    16  1
   26    15    47  1
   27    16    48  1
   28    16    17  1
   29    17    18  1
   30    17    26  1
   31    18    49  1
   32    18    19  1
   33    19    20  1
   34    20    21  1
   35    20    26  1
   36    21    22  1
   37    21    23  1
   38    22    50  1
   39    22    58  1
   40    23    24  1
   41    24    51  1
   42    24    25  1
   43    25    26  1
   44    27    28  1
   45    27    29  1
   46    27    30  1
   47    30    52  1
   48    30    53  1
   49    30    31  1
   50    31    54  1
   51    31    55  1
   52    31    32  1
   53    32    56  1
   54    32    57  1
   55    32    33  1
   56    33    34  1
   57    33    35  1
   58    33    36  1
   59    36    37  1
   60    36    38  1
   61    36    39  1
   62    38    60  1
   63    39    61  1

@<TRIPOS>SUBSTRUCTURE
1 ****        1 TEMP                        0 ****  **** 0 ROOT
